Book Title:     Python
Author:         Thomas
Content:        Welcome to Fluent Python